SOLVER= INC_NAVIER_STOKES
KIND_TURB_MODEL= NONE
MATH_PROBLEM= DIRECT
RESTART_SOL= NO
INC_DENSITY_MODEL= CONSTANT
INC_ENERGY_EQUATION = NO
INC_DENSITY_INIT= 998.2
INC_VELOCITY_INIT= ( 0.1, 0.0, 0.0 )
INC_NONDIM= INITIAL_VALUES
INC_DENSITY_REF= 1.0
INC_VELOCITY_REF= 1.0
INC_TEMPERATURE_REF = 1.0
INC_INLET_TYPE= VELOCITY_INLET
INC_INLET_DAMPING= 0.1
INC_OUTLET_TYPE= PRESSURE_OUTLET
INC_OUTLET_DAMPING= 0.1
VISCOSITY_MODEL= CONSTANT_VISCOSITY
MU_CONSTANT= 3E-3
REF_ORIGIN_MOMENT_X = 0.25
REF_ORIGIN_MOMENT_Y = 0.00
REF_ORIGIN_MOMENT_Z = 0.00
REF_LENGTH= 1.0
REF_AREA= 1.0
MARKER_HEATFLUX= (wall0, 0.0)
MARKER_INLET= (inlet1, 288.15, 0.1, -8.932349, 0.446989, -4.473627)
MARKER_OUTLET= (outlet2, 0.0)
MARKER_SYM= ( NONE )
MARKER_PLOTTING = ( wall0, inlet1, outlet2 )
MARKER_MONITORING = ( wall0, inlet1, outlet2 )
NUM_METHOD_GRAD= GREEN_GAUSS
CFL_NUMBER= 1e2
RK_ALPHA_COEFF= ( 0.66667, 0.66667, 1.000000 )
LINEAR_SOLVER= FGMRES
LINEAR_SOLVER_PREC= ILU
LINEAR_SOLVER_ERROR= 1E-15
LINEAR_SOLVER_ITER= 5
MGLEVEL= 0
MG_PRE_SMOOTH= ( 1, 2, 3, 3 )
MG_POST_SMOOTH= ( 0, 0, 0, 0 )
MG_CORRECTION_SMOOTH= ( 0, 0, 0, 0 )
MG_DAMP_RESTRICTION= 0.75
MG_DAMP_PROLONGATION= 0.75
CONV_NUM_METHOD_FLOW= FDS
MUSCL_FLOW= YES
SLOPE_LIMITER_FLOW= NONE
TIME_DISCRE_FLOW= EULER_IMPLICIT
ITER= 1000
CONV_RESIDUAL_MINVAL= -8
CONV_STARTITER= 10
CONV_CAUCHY_ELEMS= 100
CONV_CAUCHY_EPS= 1E-10
MESH_FILENAME= VesselCFD.SU2
MESH_FORMAT= SU2
MESH_OUT_FILENAME= mesh_out.su2
SOLUTION_FILENAME= solution_flow.dat
SOLUTION_ADJ_FILENAME= solution_adj.dat
TABULAR_FORMAT= CSV
CONV_FILENAME= history
RESTART_FILENAME= restart_flow.dat
RESTART_ADJ_FILENAME= restart_adj.dat
VOLUME_FILENAME= flow
VOLUME_ADJ_FILENAME= adjoint
VALUE_OBJFUNC_FILENAME= of_eval.dat
GRAD_OBJFUNC_FILENAME= of_grad.dat
SURFACE_FILENAME= surface_flow
SURFACE_ADJ_FILENAME= surface_adjoint
OUTPUT_WRT_FREQ= 1000
SCREEN_OUTPUT= (INNER_ITER, RMS_PRESSURE, RMS_VELOCITY-X, LIFT, DRAG)
